/*--------------------------------*- C++ -*----------------------------------*\
| =========                 |                                                 |
| \\      /  F ield         | OpenFOAM: The Open Source CFD Toolbox           |
|  \\    /   O peration     | Version:  4.1                                   |
|   \\  /    A nd           | Web:      www.OpenFOAM.org                      |
|    \\/     M anipulation  |                                                 |
\*---------------------------------------------------------------------------*/
FoamFile
{
    version     2.0;
    format      ascii;
    class       dictionary;
    location    "system";
    object      fvOptions;
}
// * * * * * * * * * * * * * * * * * * * * * * * * * * * * * * * * * * * * * //


turbine
{
    type            crossFlowTurbineALSource;
    active          on;

    crossFlowTurbineALSourceCoeffs
    {
        fieldNames      (U);
        selectionMode   cellSet;    // cellSet // points //cellZone
        cellSet         turbine;
        freeStreamVelocity (1 0 0);
        origin          (0 0 0);
        axis            (0 0 1);    // Negative for opposite rotation
        rotorRadius     0.5375;     // For tip speed ratio calculation
        #include "turbineOperatingParams";
        addedMass       on;

        dynamicStall
        {
            active              on;
            dynamicStallModel   LeishmanBeddoesSGC;
            LeishmanBeddoesSGCCoeffs
            {
                calcAlphaEquiv off;
                Tp          1.7;        // Default = 1.7
                Tf          3.0;        // Default = 3.0
                TAlpha      6.25;       // Default = 6.25
                alphaDS0DiffDeg 3.8;
                r0          0.01;
                Tv          11;         // Default = 11
                Tvl         8.7;        // Default = 8.7
                B1          0.5;
                eta         0.98;
                E0          0.16;
            }
        }

        flowCurvature
        {
            active              on;
            flowCurvatureModel  Goude;
        }

        blades
        {
            blade1
            {
                writePerf   true;
                nElements  8;
                endEffects  off;
                elementProfiles (NACA0021);
                elementData
                ( // axialDistance, radius, azimuth, chord, chordMount, pitch
                    (-0.4 0.5375 0.0 0.040 0.5 0.0)
                    ( 0.0 0.5375 0.0 0.067 0.5 0.0)
                    ( 0.4 0.5375 0.0 0.040 0.5 0.0)
                );
            }
            blade2
            {
                $blade1;
                writePerf   false;
                azimuthalOffset 120;
            }
            blade3
            {
                $blade2;
                azimuthalOffset 240;
            }
        }

        struts
        {
            strut1
            {
                nElements   6;
                writePerf   true;
                elementProfiles
                (
                    NACA0021 NACA0021 NACA0021 NACA0021 NACA0021 corner
                );
                elementData
                ( // axialDistance, radius, azimuth, chord, chordMount, pitch
                    (0.0 0.04 0.0 0.06 0.5 0.0)
                    (0.0 0.54 0.0 0.06 0.5 0.0)
                );
            }
            strut2
            {
                $strut1;
                writePerf   false;
                azimuthalOffset 120;
            }
            strut3
            {
                $strut2;
                azimuthalOffset 240;
            }
        }

        shaft
        {
            nElements   10;
            elementProfiles (cylinder);
            elementData
            ( // axialDistance, diameter
                (-0.66 0.0635)
                ( 0.66 0.0635)
            );
        }

        profileData
        {
            NACA0021
            {
                tableType   multiRe; // singleRe || multiRe
                Re          1.6e5;
                // ReScale     1; // Scales up Re used for lookup
                data        (#include "NACA0021_1.6e5");
                ReList      (4e4 8e4 1.6e5 3.6e5 7e5 1e6 2e6 5e6);
                clData      (#include "NACA0021_multiRe_cl");
                cdData      (#include "NACA0021_multiRe_cd");
                cmData      (#include "NACA0021_multiRe_cm");
            }
            cylinder
            {
                data // alpha_deg cl cd
                (
                    (-180 0 1.1)
                    (180 0 1.1)
                );
            }
            corner
            {
                data
                (
                    (-180 0 0.05)
                    (180 0 0.05)
                );
            }
            empty
            {
                data
                (
                    (-180 0 0)
                    (180 0 0)
                );
            }
        }
    }
}

// ************************************************************************* //
